10

S         -4.44932        3.50457        2.08169
S         -5.30475        2.58273        0.35741
C         -5.62226        4.89284        2.05473
C         -4.11704        3.35771       -0.77948
H         -4.31836        2.98373       -1.80410
H         -3.08025        3.06626       -0.51118
H         -4.24588        4.45961       -0.78472
H         -5.41944        5.53934        2.93286
H         -6.66362        4.51932        2.14368
H         -5.48139        5.50324        1.13911
